*HEADING
Model: Calculix Beam Input File
*INCLUDE, INPUT=beam.msh

*BOUNDARY
*INCLUDE,INPUT=fixxy_12.bou
*INCLUDE,INPUT=fixz_3.bou
*MATERIAL,NAME=EL
*ELASTIC
100,0

*SOLID SECTION, Elset=Ebeam, Material=EL
*STEP, NLGEOM, INC=10000000
*DYNAMIC,DIRECT
1.E-5, 100.0 

*STATIC
*DLOAD
*INCLUDE,INPUT=load.dlo

*NODE FILE
U
*EL FILE
S,PE
*END STEP
