SUMMARY OF JOB INFORMATION
  STEP      INC     ATT  ITRS     TOT TIME     STEP TIME      INC TIME
     1          1     1U   10  0.000000E+00  0.000000E+00  0.100000E+01
     1          1     2U   10  0.000000E+00  0.000000E+00  0.500000E+00
     1          1     3U   10  0.000000E+00  0.000000E+00  0.250000E+00
     1          1     4U   10  0.000000E+00  0.000000E+00  0.125000E+00
     1          1     5U    7  0.000000E+00  0.000000E+00  0.625000E-01
     1          1     6U   11  0.000000E+00  0.000000E+00  0.156250E-01
     1          1     7U   14  0.000000E+00  0.000000E+00  0.390625E-02
     1          1     8U   11  0.000000E+00  0.000000E+00  0.976562E-03
     1          1     9     7  0.244141E-03  0.244141E-03  0.244141E-03
     1          2     1     5  0.488281E-03  0.488281E-03  0.244141E-03
     1          3     1     5  0.732422E-03  0.732422E-03  0.244141E-03
     1          4     1     7  0.976562E-03  0.976562E-03  0.244141E-03
     1          5     1     5  0.122070E-02  0.122070E-02  0.244141E-03
     1          6     1U    6  0.122070E-02  0.122070E-02  0.244141E-03
     1          6     2U    4  0.122070E-02  0.122070E-02  0.610352E-04
     1          6     3     2  0.123596E-02  0.123596E-02  0.152588E-04
     1          7     1U    4  0.123596E-02  0.123596E-02  0.152588E-04
